# hf/sto-3g opt freq

Solvation Circle with Molecules

0,1
Hg 0.00 0.00 0.00
C 3.00 1.20 0.00
C 4.20 0.40 0.00
C 3.70 -1.00 0.00
C 2.30 -1.00 0.00
N 1.80 0.40 0.00
C 0.00 4.20 0.00
C 1.20 3.40 0.00
C 0.70 2.00 0.00
C -0.70 2.00 0.00
N -1.20 3.40 0.00
C -3.00 1.20 0.00
C -1.80 0.40 0.00
C -2.30 -1.00 0.00
C -3.70 -1.00 0.00
N -4.20 0.40 0.00
C -0.00 -1.80 0.00
C 1.20 -2.60 0.00
C 0.70 -4.00 0.00
C -0.70 -4.00 0.00
N -1.20 -2.60 0.00
