# hf/sto-3g opt freq

Solvation Circle with Molecules

0,1
H 0.00 0.60 -0.80
C 0.00 0.00 0.00
Cl 0.00 -1.60 0.00
H 1.20 0.60 0.80
C 1.20 0.60 0.00
H 1.20 1.40 0.00
H 2.40 0.60 -0.80
C 2.40 0.00 0.00
Cl 2.40 -1.60 0.00
H 3.60 0.60 0.80
C 3.60 0.60 0.00
H 3.60 1.40 0.00
H 4.80 0.60 -0.80
C 4.80 0.00 0.00
Cl 4.80 -1.60 0.00
